New Loadshape.Shape_1 npts=48  interval=0.5 mult=(file=Shape_1.csv) useactual=true



